<?xml version="1.0" ?>
<routes>
    <vType id="car" accel="2.6" decel="4.5" sigma="0.5" length="5" maxSpeed="15"/>
    <route id="route_0_0" edges="-8867312#6 -660891910#1.13"/>
    <route id="route_0_1" edges="-8867312#6 115872656#11.5"/>
    <route id="route_0_2" edges="-8867312#6 638636924#1.8"/>
    <route id="route_0_3" edges="-8867312#6 834845345#4-AddedOnRampEdge"/>
    <route id="route_0_4" edges="-8867312#6 gneE29"/>
    <route id="route_1_0" edges="115872656#10 -660891910#1.13"/>
    <route id="route_1_1" edges="115872656#10 115872656#11.5"/>
    <route id="route_1_2" edges="115872656#10 638636924#1.8"/>
    <route id="route_1_3" edges="115872656#10 834845345#4-AddedOnRampEdge"/>
    <route id="route_1_4" edges="115872656#10 gneE29"/>
    <route id="route_2_0" edges="115872656#11.5 -660891910#1.13"/>
    <route id="route_2_1" edges="115872656#11.5 115872656#11.5"/>
    <route id="route_2_2" edges="115872656#11.5 638636924#1.8"/>
    <route id="route_2_3" edges="115872656#11.5 834845345#4-AddedOnRampEdge"/>
    <route id="route_2_4" edges="115872656#11.5 gneE29"/>
    <route id="route_3_0" edges="660891910#1 -660891910#1.13"/>
    <route id="route_3_1" edges="660891910#1 115872656#11.5"/>
    <route id="route_3_2" edges="660891910#1 638636924#1.8"/>
    <route id="route_3_3" edges="660891910#1 834845345#4-AddedOnRampEdge"/>
    <route id="route_3_4" edges="660891910#1 gneE29"/>
    <route id="route_4_0" edges="834845345#1-AddedOffRampEdge -660891910#1.13"/>
    <route id="route_4_1" edges="834845345#1-AddedOffRampEdge 115872656#11.5"/>
    <route id="route_4_2" edges="834845345#1-AddedOffRampEdge 638636924#1.8"/>
    <route id="route_4_3" edges="834845345#1-AddedOffRampEdge 834845345#4-AddedOnRampEdge"/>
    <route id="route_4_4" edges="834845345#1-AddedOffRampEdge gneE29"/>
    <vehicle id="vehicle_0" type="car" route="route_0_0" depart="0"/>
    <vehicle id="vehicle_1" type="car" route="route_0_1" depart="5"/>
    <vehicle id="vehicle_2" type="car" route="route_0_2" depart="10"/>
    <vehicle id="vehicle_3" type="car" route="route_0_3" depart="15"/>
    <vehicle id="vehicle_4" type="car" route="route_0_4" depart="20"/>
    <vehicle id="vehicle_5" type="car" route="route_1_0" depart="25"/>
    <vehicle id="vehicle_6" type="car" route="route_1_1" depart="30"/>
    <vehicle id="vehicle_7" type="car" route="route_1_2" depart="35"/>
    <vehicle id="vehicle_8" type="car" route="route_1_3" depart="40"/>
    <vehicle id="vehicle_9" type="car" route="route_1_4" depart="45"/>
    <vehicle id="vehicle_10" type="car" route="route_2_0" depart="50"/>
    <vehicle id="vehicle_11" type="car" route="route_2_1" depart="55"/>
    <vehicle id="vehicle_12" type="car" route="route_2_2" depart="60"/>
    <vehicle id="vehicle_13" type="car" route="route_2_3" depart="65"/>
    <vehicle id="vehicle_14" type="car" route="route_2_4" depart="70"/>
    <vehicle id="vehicle_15" type="car" route="route_3_0" depart="75"/>
    <vehicle id="vehicle_16" type="car" route="route_3_1" depart="80"/>
    <vehicle id="vehicle_17" type="car" route="route_3_2" depart="85"/>
    <vehicle id="vehicle_18" type="car" route="route_3_3" depart="90"/>
    <vehicle id="vehicle_19" type="car" route="route_3_4" depart="95"/>
    <vehicle id="vehicle_20" type="car" route="route_4_0" depart="100"/>
    <vehicle id="vehicle_21" type="car" route="route_4_1" depart="105"/>
    <vehicle id="vehicle_22" type="car" route="route_4_2" depart="110"/>
    <vehicle id="vehicle_23" type="car" route="route_4_3" depart="115"/>
    <vehicle id="vehicle_24" type="car" route="route_4_4" depart="120"/>
    <vehicle id="vehicle_25" type="car" route="route_0_0" depart="125"/>
    <vehicle id="vehicle_26" type="car" route="route_0_1" depart="130"/>
    <vehicle id="vehicle_27" type="car" route="route_0_2" depart="135"/>
    <vehicle id="vehicle_28" type="car" route="route_0_3" depart="140"/>
    <vehicle id="vehicle_29" type="car" route="route_0_4" depart="145"/>
    <vehicle id="vehicle_30" type="car" route="route_1_0" depart="150"/>
    <vehicle id="vehicle_31" type="car" route="route_1_1" depart="155"/>
    <vehicle id="vehicle_32" type="car" route="route_1_2" depart="160"/>
    <vehicle id="vehicle_33" type="car" route="route_1_3" depart="165"/>
    <vehicle id="vehicle_34" type="car" route="route_1_4" depart="170"/>
    <vehicle id="vehicle_35" type="car" route="route_2_0" depart="175"/>
    <vehicle id="vehicle_36" type="car" route="route_2_1" depart="180"/>
    <vehicle id="vehicle_37" type="car" route="route_2_2" depart="185"/>
    <vehicle id="vehicle_38" type="car" route="route_2_3" depart="190"/>
    <vehicle id="vehicle_39" type="car" route="route_2_4" depart="195"/>
    <vehicle id="vehicle_40" type="car" route="route_3_0" depart="200"/>
    <vehicle id="vehicle_41" type="car" route="route_3_1" depart="205"/>
    <vehicle id="vehicle_42" type="car" route="route_3_2" depart="210"/>
    <vehicle id="vehicle_43" type="car" route="route_3_3" depart="215"/>
    <vehicle id="vehicle_44" type="car" route="route_3_4" depart="220"/>
    <vehicle id="vehicle_45" type="car" route="route_4_0" depart="225"/>
    <vehicle id="vehicle_46" type="car" route="route_4_1" depart="230"/>
    <vehicle id="vehicle_47" type="car" route="route_4_2" depart="235"/>
    <vehicle id="vehicle_48" type="car" route="route_4_3" depart="240"/>
    <vehicle id="vehicle_49" type="car" route="route_4_4" depart="245"/>
    <vehicle id="vehicle_50" type="car" route="route_0_0" depart="250"/>
    <vehicle id="vehicle_51" type="car" route="route_0_1" depart="255"/>
    <vehicle id="vehicle_52" type="car" route="route_0_2" depart="260"/>
    <vehicle id="vehicle_53" type="car" route="route_0_3" depart="265"/>
    <vehicle id="vehicle_54" type="car" route="route_0_4" depart="270"/>
    <vehicle id="vehicle_55" type="car" route="route_1_0" depart="275"/>
    <vehicle id="vehicle_56" type="car" route="route_1_1" depart="280"/>
    <vehicle id="vehicle_57" type="car" route="route_1_2" depart="285"/>
    <vehicle id="vehicle_58" type="car" route="route_1_3" depart="290"/>
    <vehicle id="vehicle_59" type="car" route="route_1_4" depart="295"/>
    <vehicle id="vehicle_60" type="car" route="route_2_0" depart="300"/>
    <vehicle id="vehicle_61" type="car" route="route_2_1" depart="305"/>
    <vehicle id="vehicle_62" type="car" route="route_2_2" depart="310"/>
    <vehicle id="vehicle_63" type="car" route="route_2_3" depart="315"/>
    <vehicle id="vehicle_64" type="car" route="route_2_4" depart="320"/>
    <vehicle id="vehicle_65" type="car" route="route_3_0" depart="325"/>
    <vehicle id="vehicle_66" type="car" route="route_3_1" depart="330"/>
    <vehicle id="vehicle_67" type="car" route="route_3_2" depart="335"/>
    <vehicle id="vehicle_68" type="car" route="route_3_3" depart="340"/>
    <vehicle id="vehicle_69" type="car" route="route_3_4" depart="345"/>
    <vehicle id="vehicle_70" type="car" route="route_4_0" depart="350"/>
    <vehicle id="vehicle_71" type="car" route="route_4_1" depart="355"/>
    <vehicle id="vehicle_72" type="car" route="route_4_2" depart="360"/>
    <vehicle id="vehicle_73" type="car" route="route_4_3" depart="365"/>
    <vehicle id="vehicle_74" type="car" route="route_4_4" depart="370"/>
    <vehicle id="vehicle_75" type="car" route="route_0_0" depart="375"/>
    <vehicle id="vehicle_76" type="car" route="route_0_1" depart="380"/>
    <vehicle id="vehicle_77" type="car" route="route_0_2" depart="385"/>
    <vehicle id="vehicle_78" type="car" route="route_0_3" depart="390"/>
    <vehicle id="vehicle_79" type="car" route="route_0_4" depart="395"/>
    <vehicle id="vehicle_80" type="car" route="route_1_0" depart="400"/>
    <vehicle id="vehicle_81" type="car" route="route_1_1" depart="405"/>
    <vehicle id="vehicle_82" type="car" route="route_1_2" depart="410"/>
    <vehicle id="vehicle_83" type="car" route="route_1_3" depart="415"/>
    <vehicle id="vehicle_84" type="car" route="route_1_4" depart="420"/>
    <vehicle id="vehicle_85" type="car" route="route_2_0" depart="425"/>
    <vehicle id="vehicle_86" type="car" route="route_2_1" depart="430"/>
    <vehicle id="vehicle_87" type="car" route="route_2_2" depart="435"/>
    <vehicle id="vehicle_88" type="car" route="route_2_3" depart="440"/>
    <vehicle id="vehicle_89" type="car" route="route_2_4" depart="445"/>
    <vehicle id="vehicle_90" type="car" route="route_3_0" depart="450"/>
    <vehicle id="vehicle_91" type="car" route="route_3_1" depart="455"/>
    <vehicle id="vehicle_92" type="car" route="route_3_2" depart="460"/>
    <vehicle id="vehicle_93" type="car" route="route_3_3" depart="465"/>
    <vehicle id="vehicle_94" type="car" route="route_3_4" depart="470"/>
    <vehicle id="vehicle_95" type="car" route="route_4_0" depart="475"/>
    <vehicle id="vehicle_96" type="car" route="route_4_1" depart="480"/>
    <vehicle id="vehicle_97" type="car" route="route_4_2" depart="485"/>
    <vehicle id="vehicle_98" type="car" route="route_4_3" depart="490"/>
    <vehicle id="vehicle_99" type="car" route="route_4_4" depart="495"/>
</routes>
